  249
surf.txt             / bulk.txt            
Si    0.000000    6.650486    4.775885
Si    7.679320   19.951459    4.775885
Si   -7.679320   19.951459    4.775885
Si    0.001920   19.914881    4.722595
Si   -3.808943   13.320924    4.722595
Si    3.807023   13.317599    4.722595
Si   13.438791    3.334122    4.692025
Si   17.270791    9.971273    4.692025
Si    9.606849    9.971307    4.692025
Si   13.438791   16.648395    4.729645
Si    5.740292    3.314137    4.729645
Si   21.137347    3.314170    4.729645
Si    0.000019    4.579957    3.428595
Si    9.472441   20.986740    3.428595
Si   -9.472460   20.986707    3.428595
Si    1.852636    7.611481    3.427805
Si   -5.920756   21.075391    3.427805
Si    5.920756   21.075391    3.427805
Si   -1.852636    7.611481    3.427805
Si   -7.773392   17.866531    3.427805
Si    7.773392   17.866531    3.427805
Si    0.000000   10.999904    3.746015
Si    3.912614   17.776750    3.746015
Si   -3.912614   17.776750    3.746015
Si   -0.001939   17.828856    3.351785
Si   -2.000463   14.360594    3.351785
Si    2.002402   14.363953    3.351785
Si    1.773923   21.028837    3.395675
Si    5.659659   14.298545    3.395675
Si   -5.659659   14.298545    3.395675
Si   -1.773923   21.028837    3.395675
Si    3.885736   11.226021    3.395675
Si   -3.885736   11.226021    3.395675
Si   15.210794    2.213515    3.367455
Si    9.522357   12.066177    3.367455
Si   17.355263   12.066177    3.367455
Si   11.666826    2.213515    3.367455
Si    7.750373    8.997011    3.367455
Si   19.127247    8.997011    3.367455
Si   13.438829    5.444520    3.345515
Si   15.443113    8.916107    3.345515
Si   11.434488    8.916074    3.345515
Si   13.438810   12.276798    3.743665
Si    9.526196    5.499952    3.743665
Si   17.351424    5.499952    3.743665
Si   15.301064   15.679619    3.554775
Si   21.229480    5.411301    3.554775
Si    5.648140    5.411301    3.554775
Si   11.576556   15.679619    3.554775
Si   19.367226    2.185782    3.554775
Si    7.510394    2.185782    3.554775
Si   13.438829   18.718891    3.386265
Si    3.947170    2.278922    3.386265
Si   22.930430    2.278889    3.386265
Si    0.000019    6.668210    2.288215
Si    7.663961   19.942613    2.288215
Si   -7.663981   19.942580    2.288215
Si    2.219323    3.870583    2.644825
Si   -8.977125   23.263401    2.644825
Si    8.977125   23.263401    2.644825
Si   -2.219323    3.870583    2.644825
Si  -11.196449   19.419420    2.644825
Si   11.196449   19.419420    2.644825
Si    3.442274    5.993185    2.656585
Si   -6.527422   23.261206    2.656585
Si    6.527422   23.261206    2.656585
Si   -3.442274    5.993185    2.656585
Si   -9.969696   17.299012    2.656585
Si    9.969696   17.299012    2.656585
Si    1.906372    9.948030    2.793735
Si   -3.870377   19.953653    2.793735
Si    3.870377   19.953653    2.793735
Si   -1.906372    9.948030    2.793735
Si   -5.776749   16.651720    2.793735
Si    5.776749   16.651720    2.793735
Si   -0.000019   13.163540    2.796875
Si    2.038859   16.694915    2.796875
Si   -2.038840   16.694948    2.796875
Si   -0.001901   19.925954    2.249805
Si   -3.816622   13.312079    2.249805
Si    3.818523   13.315371    2.249805
Si    1.196073   23.264498    2.653445
Si    7.306873   12.680283    2.653445
Si   -7.306873   12.680283    2.653445
Si   -1.196073   23.264498    2.653445
Si    6.110800   10.608623    2.653445
Si   -6.110800   10.608623    2.653445
Si   13.438829    3.342967    2.245105
Si   17.263111    9.966884    2.245105
Si    9.614489    9.966851    2.245105
Si   13.438791   10.117617    2.790605
Si   11.396111    6.579526    2.790605
Si   15.481528    6.579559    2.790605
Si   15.349060   13.328672    2.788255
Si   19.217498    6.628340    2.788255
Si    7.660122    6.628340    2.788255
Si   11.528560   13.328672    2.788255
Si   17.307248    3.319690    2.788255
Si    9.570372    3.319690    2.788255
Si   13.438829   16.617337    2.268615
Si    5.767169    3.329699    2.268615
Si   21.110431    3.329666    2.268615
Si    0.000019    0.004423    0.349165
Si    0.000000    6.650486    0.012145
Si    7.679320   19.951459    0.012145
Si   -7.679320   19.951459    0.012145
Si    1.935208    3.342967    0.346815
Si    3.862698    0.004456    0.346815
Si   23.014922    0.004456    0.346815
Si   24.942412    3.342967    0.346815
Si   15.366300   19.929279    0.346815
Si   11.511320   19.929279    0.346815
Si    3.820462    6.617234    0.366415
Si    7.640923    0.000000    0.366415
Si   19.236697    0.000000    0.366415
Si   -3.820462    6.617234    0.366415
Si   -9.618348   16.659468    0.366415
Si    9.618348   16.659468    0.366415
Si    1.919811    9.971307    0.380525
Si   -3.843500   19.953653    0.380525
Si    3.843500   19.953653    0.380525
Si   -1.919811    9.971307    0.380525
Si   -5.763310   16.628443    0.380525
Si    5.763310   16.628443    0.380525
Si    0.000000   13.287671    0.376605
Si    1.931349   16.632866    0.376605
Si   -1.931349   16.632866    0.376605
Si   -0.000019   19.947036   -0.022335
Si   -3.835820   13.303167   -0.022335
Si    3.835840   13.303200   -0.022335
Si   15.327923    0.000000    0.359355
Si    7.663961   13.274370    0.359355
Si   -7.663961   13.274370    0.359355
Si   11.549697    0.000000    0.359355
Si    5.774849   10.002331    0.359355
Si   -5.774849   10.002331    0.359355
Si   13.438791    3.320821   -0.006665
Si   17.282310    9.977924   -0.006665
Si    9.595330    9.977957   -0.006665
Si   13.438810    9.962428    0.390705
Si   11.530499    6.657137    0.390705
Si   15.347121    6.657137    0.390705
Si   15.375899   13.313176    0.393065
Si   19.217498    6.659331    0.393065
Si    7.660122    6.659331    0.393065
Si   11.501721   13.313176    0.393065
Si   17.280409    3.304194    0.393065
Si    9.597211    3.304194    0.393065
Si   13.438829   16.630638    0.013715
Si    5.755650    3.323048    0.013715
Si   21.121950    3.323015    0.013715
Si   -0.000019    2.216840   -0.391885
Si   -1.919849    5.542083   -0.391885
Si   -3.839679    8.867326   -0.391885
Si   -5.759509   12.192569   -0.391885
Si   -7.679339   15.517812   -0.391885
Si   -9.599169   18.843055   -0.391885
Si  -11.518999   22.168298   -0.391885
Si    3.839641    2.216840   -0.391885
Si    1.919811    5.542083   -0.391885
Si   -0.000019    8.867326   -0.391885
Si   -1.919849   12.192569   -0.391885
Si   -3.839679   15.517812   -0.391885
Si   -5.759509   18.843055   -0.391885
Si   -7.679339   22.168298   -0.391885
Si    7.679301    2.216840   -0.391885
Si    5.759471    5.542083   -0.391885
Si    3.839641    8.867326   -0.391885
Si    1.919811   12.192569   -0.391885
Si   -0.000019   15.517812   -0.391885
Si   -1.919849   18.843055   -0.391885
Si   -3.839679   22.168298   -0.391885
Si   11.518961    2.216840   -0.391885
Si    9.599131    5.542083   -0.391885
Si    7.679301    8.867326   -0.391885
Si    5.759471   12.192569   -0.391885
Si    3.839641   15.517812   -0.391885
Si    1.919811   18.843055   -0.391885
Si   -0.000019   22.168298   -0.391885
Si   15.358621    2.216840   -0.391885
Si   13.438791    5.542083   -0.391885
Si   11.518961    8.867326   -0.391885
Si    9.599131   12.192569   -0.391885
Si    7.679301   15.517812   -0.391885
Si    5.759471   18.843055   -0.391885
Si    3.839641   22.168298   -0.391885
Si   19.198281    2.216840   -0.391885
Si   17.278451    5.542083   -0.391885
Si   15.358621    8.867326   -0.391885
Si   13.438791   12.192569   -0.391885
Si   11.518961   15.517812   -0.391885
Si    9.599131   18.843055   -0.391885
Si    7.679301   22.168298   -0.391885
Si   23.037941    2.216840   -0.391885
Si   21.118111    5.542083   -0.391885
Si   19.198281    8.867326   -0.391885
Si   17.278451   12.192569   -0.391885
Si   15.358621   15.517812   -0.391885
Si   13.438791   18.843055   -0.391885
Si   11.518961   22.168298   -0.391885
Si   -0.000019    2.216840   -2.743185
Si   -1.919849    5.542083   -2.743185
Si   -3.839679    8.867326   -2.743185
Si   -5.759509   12.192569   -2.743185
Si   -7.679339   15.517812   -2.743185
Si   -9.599169   18.843055   -2.743185
Si  -11.518999   22.168298   -2.743185
Si    3.839641    2.216840   -2.743185
Si    1.919811    5.542083   -2.743185
Si   -0.000019    8.867326   -2.743185
Si   -1.919849   12.192569   -2.743185
Si   -3.839679   15.517812   -2.743185
Si   -5.759509   18.843055   -2.743185
Si   -7.679339   22.168298   -2.743185
Si    7.679301    2.216840   -2.743185
Si    5.759471    5.542083   -2.743185
Si    3.839641    8.867326   -2.743185
Si    1.919811   12.192569   -2.743185
Si   -0.000019   15.517812   -2.743185
Si   -1.919849   18.843055   -2.743185
Si   -3.839679   22.168298   -2.743185
Si   11.518961    2.216840   -2.743185
Si    9.599131    5.542083   -2.743185
Si    7.679301    8.867326   -2.743185
Si    5.759471   12.192569   -2.743185
Si    3.839641   15.517812   -2.743185
Si    1.919811   18.843055   -2.743185
Si   -0.000019   22.168298   -2.743185
Si   15.358621    2.216840   -2.743185
Si   13.438791    5.542083   -2.743185
Si   11.518961    8.867326   -2.743185
Si    9.599131   12.192569   -2.743185
Si    7.679301   15.517812   -2.743185
Si    5.759471   18.843055   -2.743185
Si    3.839641   22.168298   -2.743185
Si   19.198281    2.216840   -2.743185
Si   17.278451    5.542083   -2.743185
Si   15.358621    8.867326   -2.743185
Si   13.438791   12.192569   -2.743185
Si   11.518961   15.517812   -2.743185
Si    9.599131   18.843055   -2.743185
Si    7.679301   22.168298   -2.743185
Si   23.037941    2.216840   -2.743185
Si   21.118111    5.542083   -2.743185
Si   19.198281    8.867326   -2.743185
Si   17.278451   12.192569   -2.743185
Si   15.358621   15.517812   -2.743185
Si   13.438791   18.843055   -2.743185
Si   11.518961   22.168298   -2.743185
    26.87762     0.00000
   -13.43881    23.27670
